data/ics-importer/src/test/resources/network/2Nodes2ParallelLinesPST_voltagelevel2.uct
##C 2007.05.01
##N
##ZBE
BBE1AA2  BE1          0 2 225.00 0.00000 0.00000 -1000.0 0.00000 9000.00 -9000.0 9000.00 -9000.0
##ZFR
FFR1AA2  FR1          0 2 225.00 1000.00 0.00000 00000.0 0.00000 9000.00 -9000.0 9000.00 -9000.0
##L
BBE1AA2  FFR1AA2  1 0 0.0000 10.000 0.000000   5000
##T
BBE1AA2  FFR1AA2  2 0 225.0 225.0 1000. 0.0000 10.000 0.000000 0.0	     5000 PST
##R
BBE1AA2  FFR1AA2  2                    -0.68 90.00 16 0         SYMM
